/*--------------------------------*- C++ -*----------------------------------*\
  =========                 |
  \\      /  F ield         | OpenFOAM: The Open Source CFD Toolbox
   \\    /   O peration     | Website:  https://openfoam.org
    \\  /    A nd           | Version:  6
     \\/     M anipulation  |
\*---------------------------------------------------------------------------*/
FoamFile
{
    version     2.0;
    format      ascii;
    class       dictionary;
    location    "constant";
    object      transportProperties;
}
//------------------------------- hemodynamic4Foam project -------------------------------//
//Author
    //Ehsan Golab, SUT. All rights reserved.
    //Ehsan1996Golab@gmail.com

//----------------------------------------------------------------------------------------//

transportModel			Newtonian;

nu				nu [0 2 -1 0 0 0 0] 3.02e-06;
rho				rho [1 -3 0 0 0 0 0] 1060;
TActive				TActive [0 0 0 0 0 0 0] 1;
CActive				CActive [0 0 0 0 0 0 0] 1;
k				k [1 1 -3 -1 0 0 0] 0.45;
Cp				Cp [0 2 -2 -1 0 0 0] 3770;
Prt				Prt [0 0 0 0 0 0 0] 0.85;
dp				dp [0 1 0 0 0 0 0] 100e-9;
kp				kp [1 1 -3 -1 0 0 0] 20e5;


BirdCarreauCoeffs////Carreau
{
    nu0				nu0 [0 2 -1 0 0 0 0] 6.98e-5;
    nuInf			nuInf [0 2 -1 0 0 0 0] 3.71e-6;
    k				k [0 0 1 0 0 0 0] 9.1034;
    n				n [0 0 0 0 0 0 0] 0.4586;
}

powerLawCoeffs
{
    nuMax			nuMax [0 2 -1 0 0 0 0] 2.83e-6;
    nuMin			nuMin [0 2 -1 0 0 0 0] 1.18e-6;
    k				k [0 2 -1 0 0 0 0] 3.3e-5;
    n				n [ 0 0 0 0 0 0 0 ] 0.6;
}

CrossPowerLawCoeffs//Cross
{
    nu0				nu0 [0 2 -1 0 0 0 0] 5.28e-5;
    nuInf			nuInf [0 2 -1 0 0 0 0] 3.25e-6;
    m				m [0 0 1 0 0 0 0] 1.007;
    n				n [0 0 0 0 0 0 0] 1.028;
}

HerschelBulkleyCoeffs
{
    nu0				nu0 [0 2 -1 0 0 0 0] 3.02e-06;
    tau0			tau0 [0 2 -2 0 0 0 0] 1.65e-5;
    k				k [0 2 -1 0 0 0 0] 8.46e-6;
    n				n [ 0 0  0 0 0 0 0 ] 0.8601;
}

//- hemodynamic4Foam
CassonCoeffs//unavailable
{
    m				m [ 0 2 -1 0 0 0 0 ] 3.934986e-6;
    tau0			tau0 [ 0 2 -2 0 0 0 0 ] 2.9032e-6;
    nuMax			nuMax [ 0 2 -1 0 0 0 0 ] 2.83e-6;
    nuMin			nuMin [ 0 2 -1 0 0 0 0 ] 1.18e-6;
}

QuemadaCoeffs
{
    a0				a0 [ 0 0 0 0 0 0 0 ] 0.0611;
    a1				a1 [ 0 0 0 0 0 0 0 ] 0.04778;
    b0				b0 [ 0 0 0 0 0 0 0 ] 1.803;
    b1				b1 [ 0 0 0 0 0 0 0 ] -3.683;
    b2				b2 [ 0 0 0 0 0 0 0 ] 2.614;
    b3				b3 [ 0 0 0 0 0 0 0 ] -0.001667;
    c0				c0 [ 0 0 0 0 0 0 0 ] -7.022;
    c1				c1 [ 0 0 0 0 0 0 0 ] 34.46;
    c2				c2 [ 0 0 0 0 0 0 0 ] -39.96;
    c3				c3 [ 0 0 0 0 0 0 0 ] 14.1;
    gammaC0			gammaC0 [ 0 0 -1 0 0 0 0 ] 1.0;//needed for dimension only leave at 1.0!
    nuPlasma			nuPlasma [ 0 2 -1 0 0 0 0 ] 1.16e-6;
}

Krieger5Coeffs
{
    a				a [ 0 0 0 0 0 0 0 ] 0; // zero in MKM5
    b				b [ 0 0 0 0 0 0 0 ] 8.781;
    c				c [ 0 0 0 0 0 0 0 ] 2.824;
    beta			beta [ 0 0 0 0 0 0 0 ] 16.1;    
    lambda			lambda [ 0 0 1 0 0 0 0 ] 1206;
    nuK				nuK [ 0 0 0 0 0 0 0 ] 0.1427;
    nuPlasma			nuPlasma [ 0 2 -1 0 0 0 0 ] 1.16e-6;
    Hcrit			Hcrit [ 0 0 0 0 0 0 0 ] 0.98;
}

KriegerDoughertyCoeffs
{
    n				n [ 0 0 0 0 0 0 0 ] 1.82;
    Hcrit			Hcrit [ 0 0 0 0 0 0 0 ] 0.67;
    nuPlasma			nuPlasma [ 0 2 -1 0 0 0 0 ] 1.16e-6;
}

YeleswarapuCoeffs// need to be modified
{
    a1				a1 [ 0 0 0 0 0 0 0 ] -0.02779;
    a2				a2 [ 0 0 0 0 0 0 0 ] 1.012;
    a3				a3 [ 0 0 0 0 0 0 0 ] -0.636;
    b1				b1 [ 0 0 0 0 0 0 0 ] 0.0749;
    b2				b2 [ 0 0 0 0 0 0 0 ] -0.1911;
    b3				b3 [ 0 0 0 0 0 0 0 ] 0.1624;
    k				k [ 0 0 1 0 0 0 0 ] 8.001;
    nuPlasma			nuPlasma [ 0 2 -1 0 0 0 0 ] 1.16e-6;
}

AmeenuddinCoeffs
{
    rho				rho [1 -3 0 0 0 0 0] 1060;
    a1				a1 [1 -1 -1 0 0 0 0] 0.1293;
    a2				a2 [1 -1 -1 0 0 0 0] -1.7912;
    a3				a3 [1 -1 -1 0 0 0 0] 7.6047;
    b1				b1 [1 -1 -1 0 0 0 0] 0.2114;
    b2				b2 [1 -1 -1 0 0 0 0] 0.9067;
    b3				b3 [1 -1 -1 0 0 0 0] 1.9879;
    c1				c1 [0 0 1 0 0 0 0] 1.4024;
    c2				c2 [0 0 1 0 0 0 0] -2.3810;
}

EckmannCoeffs
{
    lambda			lambda [ 0 0 -1 0 0 0 0 ] 9.21;
    etha			etha [ 0 0 0 0 0 0 0 ] 0.0137;
    alpha			alpha [ 0 0 0 0 0 0 0 ] 1.74;
    phi				phi [ 0 0 0 0 0 0 0 ] 9.78;
    beta			beta [ 0 0 0 -1 0 0 0 ] 0.28;
    kesi			kesi [ 0 0 0 1 0 0 0 ] 15.2;
    rho				rho [1 -3 0 0 0 0 0] 1060;
}

WalburnSchneckCoeffs
{
    rho				rho [1 -3 0 0 0 0 0] 1060;
    a1				a1 [0 0 0 0 0 0 0] 0.00797;
    a2				a2 [0 0 0 0 0 0 0] 0.0608;
    a3				a3 [0 0 0 0 0 0 0] 0.005;
    a4				a4 [-1 3 0 0 0 0 0] 14.585;
    TPMA			TPMA [1 -3 0 0 0 0 0] 25.9;
}

// ************************************************************************* //
