/*--------------------------------*- C++ -*----------------------------------*\
  =========                 |
  \\      /  F ield         | OpenFOAM: The Open Source CFD Toolbox
   \\    /   O peration     | Website:  https://openfoam.org
    \\  /    A nd           | Version:  6
     \\/     M anipulation  |
\*---------------------------------------------------------------------------*/
FoamFile
{
    version     2.0;
    format      ascii;
    class       dictionary;
    location    "constant";
    object      transportProperties;
}
//------------------------------- hemodynamic4Foam project -------------------------------//
//Author
    //Ehsan Golab, SUT. All rights reserved.
    //Ehsan1996Golab@gmail.com

//----------------------------------------------------------------------------------------//

transportModel			Quemada;

nu				nu [0 2 -1 0 0 0 0] 3.02e-06;
rho				rho [1 -3 0 0 0 0 0] 1060;
TActive				TActive [0 0 0 0 0 0 0] 1;
CActive				CActive [0 0 0 0 0 0 0] 1;
k				k [1 1 -3 -1 0 0 0] 0.45;
Cp				Cp [0 2 -2 -1 0 0 0] 3770;
Prt				Prt [0 0 0 0 0 0 0] 0.85;
dp				dp [0 1 0 0 0 0 0] 100e-9;
kp				kp [1 1 -3 -1 0 0 0] 20e5;


//- hemodynamic4Foam

QuemadaCoeffs
{
    a0				a0 [ 0 0 0 0 0 0 0 ] 0.0611;
    a1				a1 [ 0 0 0 0 0 0 0 ] 0.04778;
    b0				b0 [ 0 0 0 0 0 0 0 ] 1.803;
    b1				b1 [ 0 0 0 0 0 0 0 ] -3.683;
    b2				b2 [ 0 0 0 0 0 0 0 ] 2.614;
    b3				b3 [ 0 0 0 0 0 0 0 ] -0.001667;
    c0				c0 [ 0 0 0 0 0 0 0 ] -7.022;
    c1				c1 [ 0 0 0 0 0 0 0 ] 34.46;
    c2				c2 [ 0 0 0 0 0 0 0 ] -39.96;
    c3				c3 [ 0 0 0 0 0 0 0 ] 14.1;
    gammaC0			gammaC0 [ 0 0 -1 0 0 0 0 ] 1.0;//needed for dimension only leave at 1.0!
    nuPlasma			nuPlasma [ 0 2 -1 0 0 0 0 ] 1.16e-6;
}

// ************************************************************************* //
