/*--------------------------------*- C++ -*----------------------------------*\
| =========                 |                                                 |
| \\      /  F ield         | foam-extend: Open Source CFD                    |
|  \\    /   O peration     | Version:     4.1                                |
|   \\  /    A nd           | Web:         http://www.foam-extend.org         |
|    \\/     M anipulation  |                                                 |
\*---------------------------------------------------------------------------*/
FoamFile
{
    version     2.0;
    format      ascii;
    class       volScalarField;
    object      p;
}
// * * * * * * * * * * * * * * * * * * * * * * * * * * * * * * * * * * * * * //

dimensions		[0 2 -2 0 0 0 0];

internalField		uniform 8.5;

boundaryField
{
    CCA
    {
	type		zeroGradient;
    }

    ECA
    {
        type            WKBC4HD;
        index           0;
        value           uniform 0;
    }

    ICA
    {
        type            WKBC4HD;
        index           0;
        value           uniform 0;
    }

    WALL
    {
	type		zeroGradient;
    }

    APEX
    {
	type		zeroGradient;
    }

    SINUS
    {
	type		zeroGradient;
    }
}

// ************************************************************************* //
