/*--------------------------------*- C++ -*----------------------------------*\
| =========                 |                                                 |
| \\      /  F ield         | foam-extend: Open Source CFD                    |
|  \\    /   O peration     | Version:     4.1                                |
|   \\  /    A nd           | Web:         http://www.foam-extend.org         |
|    \\/     M anipulation  |                                                 |
\*---------------------------------------------------------------------------*/
FoamFile
{
    version     2.0;
    format      ascii;
    class       volScalarField;
    object      T;
}
// * * * * * * * * * * * * * * * * * * * * * * * * * * * * * * * * * * * * * //

dimensions		[0 0 0 1 0 0 0];

internalField		uniform 310.0;
boundaryField
{
    CCA
    {
	type		fixedValue;
	value		$internalField;
    }

    ECA
    {
	type		zeroGradient;
    }

    ICA
    {
	type		zeroGradient;
    }

    WALL
    {
	type		fixedValue;
	value		uniform 311.0;
    }

    APEX
    {
	type		fixedValue;
	value		uniform 311.0;
    }

    SINUS
    {
	type		fixedValue;
	value		uniform 311.0;
    }
}
// ************************************************************************* //
