/*--------------------------------*- C++ -*----------------------------------*\
  =========                 |
  \\      /  F ield         | OpenFOAM: The Open Source CFD Toolbox
   \\    /   O peration     | Website:  https://openfoam.org
    \\  /    A nd           | Version:  6
     \\/     M anipulation  |
\*---------------------------------------------------------------------------*/
FoamFile
{
    version     2.0;
    format      ascii;
    class       dictionary;
    location    "constant";
    object      transportProperties;
}
//------------------------------- hemodynamic4Foam project -------------------------------//
//Author
    //Ehsan Golab, SUT. All rights reserved.
    //Ehsan1996Golab@gmail.com

//----------------------------------------------------------------------------------------//

transportModel			Ameenuddin;

nu				nu [0 2 -1 0 0 0 0] 3.02e-06;
rho				rho [1 -3 0 0 0 0 0] 1060;
TActive				TActive [0 0 0 0 0 0 0] 1;
CActive				CActive [0 0 0 0 0 0 0] 1;
k				k [1 1 -3 -1 0 0 0] 0.45;
Cp				Cp [0 2 -2 -1 0 0 0] 3770;
Prt				Prt [0 0 0 0 0 0 0] 0.85;
dp				dp [0 1 0 0 0 0 0] 100e-9;
kp				kp [1 1 -3 -1 0 0 0] 20e5;


AmeenuddinCoeffs
{
    rho				rho [1 3 0 0 0 0 0] 1060;
    a1				a1 [1 -1 -1 0 0 0 0] 0.1293;
    a2				a2 [1 -1 -1 0 0 0 0] -1.7912;
    a3				a3 [1 -1 -1 0 0 0 0] 7.6047;
    b1				b1 [1 -1 -1 0 0 0 0] 0.2114;
    b2				b2 [1 -1 -1 0 0 0 0] 0.9067;
    b3				b3 [1 -1 -1 0 0 0 0] 1.9879;
    c1				c1 [0 0 1 0 0 0 0] 1.4024;
    c2				c2 [0 0 1 0 0 0 0] -2.3810;
}

// ************************************************************************* //
