/*--------------------------------*- C++ -*----------------------------------*\
| =========                 |                                                |
| \\      /  F ield         | cfMesh: A library for mesh generation          | 
|  \\    /   O peration     |                                                |
|   \\  /    A nd           | Author: Franjo Juretic                         | 
|    \\/     M anipulation  | E-mail: franjo.juretic@c-fields.com            |
\*---------------------------------------------------------------------------*/

FoamFile
{
    version   2.0;
    format    ascii;
    class     dictionary;
    location  "system";
    object    meshDict;
}

// * * * * * * * * * * * * * * * * * * * * * * * * * * * * * * * * * * * * * //

surfaceFile "fluidDomain.fms";

maxCellSize 2.0;

boundaryCellSize 0.5;

minCellSize 0.1;



localRefinement
{
    ".*"
    {
        cellSize 0.5;
    } 
}

boundaryLayers
{
    nLayers 4;

    thicknessRatio 1.1;

    maxFirstLayerThickness 0.5;
}

// ************************************************************************* //
